<?xml version="1.0" encoding="UTF-8"?>
<!DOCTYPE network SYSTEM "http://www.matsim.org/files/dtd/network_v2.dtd">
<network>

<!-- ====================================================================== -->

	<nodes>
		<node id="1" x="455747.9444126639" y="5734797.770650977" >
		</node>
		<node id="10" x="455857.9509617078" y="5735847.945617793" >
		</node>
		<node id="1001225778" x="455408.39186172344" y="5735150.309558365" >
		</node>
		<node id="107705056" x="454374.12692529627" y="5734669.373093018" >
		</node>
		<node id="11" x="455673.7357397801" y="5735497.324908923" >
		</node>
		<node id="1190854500" x="454316.8508189758" y="5733662.477351461" >
		</node>
		<node id="1199089283" x="453978.42175044754" y="5735826.554827557" >
		</node>
		<node id="12" x="455645.4727124881" y="5735487.8527954295" >
		</node>
		<node id="1217698487" x="453209.9685581172" y="5733867.096391867" >
		</node>
		<node id="13" x="454138.4640279245" y="5734459.039842937" >
		</node>
		<node id="1313259266" x="454165.93189948" y="5733592.263875957" >
		</node>
		<node id="1313606351" x="453500.91171261034" y="5733410.655651314" >
		</node>
		<node id="1313606358" x="453497.0164544468" y="5733384.319984457" >
		</node>
		<node id="1313608222" x="453524.12666953297" y="5733407.404903085" >
		</node>
		<node id="1313612554" x="453608.69129600027" y="5733394.71296163" >
		</node>
		<node id="1313612561" x="453615.59090364544" y="5733365.7752104215" >
		</node>
		<node id="1313612604" x="453522.5544234273" y="5733380.669614407" >
		</node>
		<node id="1319404515" x="455702.45576083695" y="5735379.184208143" >
		</node>
		<node id="1321033350" x="453644.92150584824" y="5733911.356768481" >
		</node>
		<node id="1321033362" x="453631.4913987217" y="5733976.180484924" >
		</node>
		<node id="1321033377" x="453625.76174042525" y="5734197.2612734735" >
		</node>
		<node id="1321033424" x="453593.7889248446" y="5734723.732375376" >
		</node>
		<node id="1321522504" x="453622.41959270625" y="5733910.084660056" >
		</node>
		<node id="1321522535" x="453597.5883045152" y="5734681.409238046" >
		</node>
		<node id="1321606360" x="453639.00370081904" y="5734228.282573351" >
		</node>
		<node id="1324392624" x="453982.3816092136" y="5734196.536395701" >
		</node>
		<node id="1324407035" x="453805.0829846419" y="5733847.0201240275" >
		</node>
		<node id="1324407039" x="453826.77492406423" y="5733949.6493901545" >
		</node>
		<node id="1324793249" x="453911.90476835775" y="5733262.662666857" >
		</node>
		<node id="1325054973" x="453879.35205014714" y="5733322.91127073" >
		</node>
		<node id="1325055357" x="453957.8934725775" y="5733499.953454331" >
		</node>
		<node id="1325086870" x="453775.26682015375" y="5733368.522602768" >
		</node>
		<node id="1325115746" x="453975.4977052541" y="5733813.426680615" >
		</node>
		<node id="1325138080" x="454593.4398371146" y="5733421.842189344" >
		</node>
		<node id="1325223600" x="455622.033384147" y="5733379.395022579" >
		</node>
		<node id="1325277081" x="455887.5998427151" y="5734799.29775094" >
		</node>
		<node id="1325277170" x="455717.36990164407" y="5735302.440909506" >
		</node>
		<node id="1325416307" x="454680.3423791439" y="5734808.286363201" >
		</node>
		<node id="1325533455" x="453992.59466635354" y="5734268.739809772" >
		</node>
		<node id="1325538692" x="453731.2846192387" y="5734235.753411188" >
		</node>
		<node id="1325613946" x="453983.93043636455" y="5734237.60903724" >
		</node>
		<node id="1325613981" x="453958.96412772243" y="5734247.469425687" >
		</node>
		<node id="1325653681" x="454167.20386763476" y="5734280.327564675" >
		</node>
		<node id="1325653694" x="454225.56495078385" y="5734302.353212283" >
		</node>
		<node id="1325698695" x="453978.66526846966" y="5733943.987831915" >
		</node>
		<node id="1326816015" x="453551.0795685189" y="5735213.632043042" >
		</node>
		<node id="1328577302" x="453629.3572675281" y="5735858.1218249565" >
		</node>
		<node id="1328577307" x="453448.90349332005" y="5735866.183364187" >
		</node>
		<node id="1328577310" x="453559.7768015297" y="5735883.889453149" >
		</node>
		<node id="1329495346" x="454964.7883832462" y="5735747.959321982" >
		</node>
		<node id="1329495378" x="454775.6888782061" y="5735780.442392095" >
		</node>
		<node id="1329545115" x="454392.0115703028" y="5735843.199472296" >
		</node>
		<node id="1329560200" x="453644.20457189577" y="5735859.364240407" >
		</node>
		<node id="1329560208" x="453589.53795390105" y="5735896.594988148" >
		</node>
		<node id="1382484662" x="455897.5756595373" y="5735510.8632773245" >
		</node>
		<node id="1382484709" x="455878.5447636314" y="5735544.097384954" >
		</node>
		<node id="1382484739" x="455879.35603043716" y="5735583.897840586" >
		</node>
		<node id="1393174051" x="455518.16234555084" y="5733624.328204798" >
		</node>
		<node id="14" x="454608.64722530363" y="5733418.996765889" >
		</node>
		<node id="1404976845" x="453536.25452474225" y="5734706.567012947" >
		</node>
		<node id="1405626711" x="453413.3827156851" y="5733396.137629913" >
		</node>
		<node id="1405626727" x="453415.54151618865" y="5733420.542848781" >
		</node>
		<node id="1406580361" x="453864.2490125087" y="5734585.929077685" >
		</node>
		<node id="1407401017" x="454084.3093692464" y="5734262.719467695" >
		</node>
		<node id="1407510000" x="454797.6790394698" y="5734632.16231698" >
		</node>
		<node id="1407510008" x="454903.9403841908" y="5734660.394918846" >
		</node>
		<node id="1407510010" x="454894.48808375775" y="5734690.821929162" >
		</node>
		<node id="1407510012" x="454945.7032367096" y="5734708.081542152" >
		</node>
		<node id="1407510014" x="454981.60746746196" y="5734712.754366519" >
		</node>
		<node id="1407510018" x="454945.754522073" y="5734740.80363726" >
		</node>
		<node id="1407510026" x="454998.72656804766" y="5734742.354135525" >
		</node>
		<node id="1407510032" x="454878.31068767986" y="5734764.064340652" >
		</node>
		<node id="1407510052" x="454889.6089761127" y="5734837.22736892" >
		</node>
		<node id="1407510056" x="454945.7872347833" y="5734837.769780752" >
		</node>
		<node id="1407529211" x="454922.8054076836" y="5734595.081171528" >
		</node>
		<node id="1407529226" x="455596.8269859058" y="5734797.649816049" >
		</node>
		<node id="1407529229" x="455558.36806821125" y="5734803.661685358" >
		</node>
		<node id="1407529230" x="455352.70417452615" y="5734805.492654023" >
		</node>
		<node id="1407529231" x="455589.57458284835" y="5734804.064758985" >
		</node>
		<node id="1407529234" x="455759.0364869033" y="5734848.330704972" >
		</node>
		<node id="1407531032" x="455590.13968102203" y="5734030.854973056" >
		</node>
		<node id="1407531049" x="455663.08600832603" y="5734108.136511303" >
		</node>
		<node id="1412637427" x="454189.0867373214" y="5735858.589982984" >
		</node>
		<node id="1412637429" x="454378.1007579813" y="5735942.950626704" >
		</node>
		<node id="1412637432" x="454388.459887794" y="5736122.8091820525" >
		</node>
		<node id="1412637434" x="454131.6888309106" y="5736138.623821301" >
		</node>
		<node id="1412637436" x="453814.8888941581" y="5736155.157920912" >
		</node>
		<node id="1412675489" x="452435.97007581807" y="5735812.756744176" >
		</node>
		<node id="1412675491" x="452501.5373872162" y="5735849.909991936" >
		</node>
		<node id="1412675492" x="452614.67121268105" y="5735858.809332816" >
		</node>
		<node id="1412675498" x="452750.7055155573" y="5735953.529813555" >
		</node>
		<node id="1412675502" x="452874.21583669377" y="5736045.835217837" >
		</node>
		<node id="1412675503" x="452425.82536705694" y="5736050.599448263" >
		</node>
		<node id="1412675511" x="452651.3000748261" y="5736079.694089349" >
		</node>
		<node id="1412675520" x="452793.158675172" y="5736171.513448692" >
		</node>
		<node id="1412675526" x="453392.2478654129" y="5736192.867692556" >
		</node>
		<node id="1412675533" x="452753.22646848316" y="5736247.733598031" >
		</node>
		<node id="1412675558" x="452343.6756091279" y="5736317.642261582" >
		</node>
		<node id="1412675565" x="453311.98594659474" y="5736365.9458653" >
		</node>
		<node id="1412678590" x="453385.71733257733" y="5735861.796445299" >
		</node>
		<node id="1413994107" x="453300.657832875" y="5736363.103494251" >
		</node>
		<node id="1417936456" x="453782.5764956905" y="5735878.712841286" >
		</node>
		<node id="1417936467" x="453646.21337171143" y="5735901.4003488" >
		</node>
		<node id="1417936482" x="453789.7230382014" y="5735941.590073412" >
		</node>
		<node id="1417936485" x="453719.0690195557" y="5735945.120135868" >
		</node>
		<node id="1417936490" x="453649.1112007122" y="5735949.312136045" >
		</node>
		<node id="1417936538" x="453806.4047782805" y="5736081.059079203" >
		</node>
		<node id="1417936540" x="453731.27810436016" y="5736084.974862064" >
		</node>
		<node id="1417936543" x="453657.09635217575" y="5736088.838575113" >
		</node>
		<node id="1417936574" x="453660.3479270186" y="5736163.941929007" >
		</node>
		<node id="1418829713" x="454298.0500793616" y="5735214.858184073" >
		</node>
		<node id="1418829718" x="454151.6523441931" y="5735228.357682138" >
		</node>
		<node id="1418829728" x="454157.7243784386" y="5735279.766594103" >
		</node>
		<node id="1418829730" x="454038.35892222903" y="5735302.9001502525" >
		</node>
		<node id="1418829785" x="454191.011558095" y="5735403.669482715" >
		</node>
		<node id="1418829806" x="454461.21140544675" y="5735404.220586327" >
		</node>
		<node id="1418829842" x="454575.58601662953" y="5735450.591463689" >
		</node>
		<node id="1418829856" x="454511.3288603211" y="5735458.701802135" >
		</node>
		<node id="1418829863" x="454566.8266830295" y="5735477.120020138" >
		</node>
		<node id="1418829894" x="454497.5268441271" y="5735550.276434617" >
		</node>
		<node id="1418829900" x="454409.84076942713" y="5735572.625549779" >
		</node>
		<node id="1418829912" x="454482.5381983868" y="5735595.280473665" >
		</node>
		<node id="1418829922" x="454550.5228512753" y="5735607.356930565" >
		</node>
		<node id="1418829984" x="454518.15231162" y="5735707.463434048" >
		</node>
		<node id="1418830019" x="454291.2350293632" y="5735736.49159624" >
		</node>
		<node id="1418830064" x="454505.93177697674" y="5735799.869111098" >
		</node>
		<node id="1418830107" x="455237.2141623598" y="5735848.9019050505" >
		</node>
		<node id="1419252881" x="454259.92006398377" y="5735714.44194858" >
		</node>
		<node id="1419252887" x="454204.45705128374" y="5735717.137497986" >
		</node>
		<node id="1419252889" x="454113.2638491867" y="5735722.205877157" >
		</node>
		<node id="1419252892" x="454271.14385448745" y="5735733.048151964" >
		</node>
		<node id="1419252896" x="454255.6089605448" y="5735741.965062362" >
		</node>
		<node id="1419252901" x="454210.38480865996" y="5735743.69993032" >
		</node>
		<node id="1419252903" x="454146.2478063491" y="5735759.989012508" >
		</node>
		<node id="1419252905" x="454211.73717014404" y="5735773.262607692" >
		</node>
		<node id="1419252918" x="454259.4258076738" y="5735811.146275025" >
		</node>
		<node id="1419480682" x="453905.7458281191" y="5735140.81091009" >
		</node>
		<node id="1419480683" x="453902.7691813373" y="5735235.5248279115" >
		</node>
		<node id="1419480684" x="453902.1240119062" y="5735251.736360212" >
		</node>
		<node id="1420373072" x="453633.3243514032" y="5733910.60710237" >
		</node>
		<node id="1420385590" x="453542.25118699047" y="5733753.372359023" >
		</node>
		<node id="1420385591" x="453532.7086424175" y="5733907.241254391" >
		</node>
		<node id="1420385596" x="453519.42606788914" y="5734204.748496432" >
		</node>
		<node id="1420451127" x="453235.8170885894" y="5733881.560346848" >
		</node>
		<node id="1420451140" x="453355.37906176056" y="5733888.259476661" >
		</node>
		<node id="1420451153" x="453148.685030344" y="5733897.052108618" >
		</node>
		<node id="1420451188" x="453151.0635296123" y="5734054.014348167" >
		</node>
		<node id="1420451190" x="453384.3627650422" y="5734069.18922466" >
		</node>
		<node id="1420451195" x="453141.8008692573" y="5734192.087542619" >
		</node>
		<node id="1420451196" x="453135.77566148015" y="5734403.528738531" >
		</node>
		<node id="1420465701" x="452954.80567862524" y="5733967.386095762" >
		</node>
		<node id="1420465748" x="452738.2787966075" y="5734036.527584593" >
		</node>
		<node id="1420465764" x="452699.93961693754" y="5734176.109379428" >
		</node>
		<node id="1420465766" x="452722.70746414486" y="5734181.53471418" >
		</node>
		<node id="1420465781" x="452872.6885959507" y="5734511.760578925" >
		</node>
		<node id="1420465782" x="452871.3742385984" y="5734519.558715288" >
		</node>
		<node id="1420523081" x="452109.4203219321" y="5734150.38119042" >
		</node>
		<node id="1420523094" x="452922.00833980786" y="5734186.541075685" >
		</node>
		<node id="1420523096" x="452715.64243228344" y="5734197.328438455" >
		</node>
		<node id="1420523099" x="452333.8011089452" y="5734215.143534795" >
		</node>
		<node id="1420523102" x="452332.264603233" y="5734219.084369821" >
		</node>
		<node id="1420523125" x="451938.17953405145" y="5734264.307043615" >
		</node>
		<node id="1420523130" x="452686.146736768" y="5734285.429725075" >
		</node>
		<node id="1420523132" x="452703.16562961106" y="5734288.061601788" >
		</node>
		<node id="1420523133" x="452411.33757988573" y="5734291.667879712" >
		</node>
		<node id="1420523138" x="452143.8095736204" y="5734338.427217262" >
		</node>
		<node id="1420523147" x="452694.16214668646" y="5734371.543598219" >
		</node>
		<node id="1420523153" x="452270.4950737925" y="5734384.65157708" >
		</node>
		<node id="1420523155" x="452892.6398971504" y="5734387.489950229" >
		</node>
		<node id="1420523165" x="452677.74268485326" y="5734413.563450998" >
		</node>
		<node id="1420523170" x="452676.11779620056" y="5734425.746873597" >
		</node>
		<node id="1420523171" x="452658.2178079011" y="5734429.196332147" >
		</node>
		<node id="1420523174" x="452656.21902283654" y="5734441.983899797" >
		</node>
		<node id="1420523180" x="452489.3341445478" y="5734466.935752806" >
		</node>
		<node id="1420523185" x="452770.49534649623" y="5734472.220764805" >
		</node>
		<node id="1420523194" x="452718.1728250965" y="5734505.723818632" >
		</node>
		<node id="1420523195" x="452083.97947231703" y="5734511.875503449" >
		</node>
		<node id="1420523201" x="452870.43883782293" y="5734525.073167834" >
		</node>
		<node id="1420523204" x="452237.9025744705" y="5734538.998081961" >
		</node>
		<node id="1420523210" x="452386.016406497" y="5734565.1013843985" >
		</node>
		<node id="1420523213" x="452448.5233095104" y="5734576.111511121" >
		</node>
		<node id="1420523226" x="452625.1673584916" y="5734607.246790633" >
		</node>
		<node id="1420523228" x="452642.04790458945" y="5734609.957606353" >
		</node>
		<node id="1420523235" x="452729.0447204368" y="5734621.219156082" >
		</node>
		<node id="1420523239" x="452358.63164145185" y="5734639.837631027" >
		</node>
		<node id="1420523248" x="452650.24186938116" y="5734695.2022122415" >
		</node>
		<node id="1420523251" x="452711.794430965" y="5734709.194293655" >
		</node>
		<node id="1420523252" x="452646.2007711462" y="5734718.319677934" >
		</node>
		<node id="1420523259" x="452639.97927055083" y="5734753.970619173" >
		</node>
		<node id="1420523262" x="452710.5660139627" y="5734755.498207799" >
		</node>
		<node id="1420523268" x="452710.83410384983" y="5734795.792971014" >
		</node>
		<node id="1420523278" x="452701.5683175943" y="5734810.116985671" >
		</node>
		<node id="1420523279" x="452710.4734485147" y="5734810.30026663" >
		</node>
		<node id="1420523323" x="452848.87204212125" y="5734981.50286106" >
		</node>
		<node id="1420523324" x="452952.6950220159" y="5734983.912703251" >
		</node>
		<node id="1420523335" x="453282.9435741172" y="5735058.20581794" >
		</node>
		<node id="1420523343" x="453037.95931750204" y="5735083.220110608" >
		</node>
		<node id="1420523348" x="452847.1599818985" y="5735097.861588411" >
		</node>
		<node id="1420523350" x="452572.0407406904" y="5735132.401671184" >
		</node>
		<node id="1420523361" x="452555.84753347276" y="5735144.588972434" >
		</node>
		<node id="1420523364" x="452585.88837375387" y="5735148.877311574" >
		</node>
		<node id="1420523375" x="452571.16017530963" y="5735162.730282942" >
		</node>
		<node id="1420523376" x="452846.08165260614" y="5735170.613688933" >
		</node>
		<node id="1420523381" x="452938.7274557918" y="5735201.813162843" >
		</node>
		<node id="1420523392" x="453040.3850926157" y="5735241.883953564" >
		</node>
		<node id="1420523394" x="453052.83382210333" y="5735246.939846557" >
		</node>
		<node id="1420523401" x="453157.71375082183" y="5735278.251669216" >
		</node>
		<node id="1420523402" x="452985.1111639461" y="5735314.107527132" >
		</node>
		<node id="1420523407" x="452622.2255010244" y="5735670.253808125" >
		</node>
		<node id="1420523408" x="452570.9792489305" y="5735710.344257408" >
		</node>
		<node id="1420523421" x="452550.29389053583" y="5735735.520718526" >
		</node>
		<node id="1420523425" x="452585.0312073464" y="5735742.078235039" >
		</node>
		<node id="1420536470" x="452385.21573085187" y="5735860.040848762" >
		</node>
		<node id="1420812776" x="452379.069314701" y="5734088.184166352" >
		</node>
		<node id="1420812790" x="452336.4023520885" y="5734208.467576385" >
		</node>
		<node id="1420812997" x="451447.3944251779" y="5735017.215514946" >
		</node>
		<node id="1420867775" x="452120.7604866345" y="5733819.942230064" >
		</node>
		<node id="1423511174" x="453961.81531245215" y="5735449.695013354" >
		</node>
		<node id="1423511175" x="453846.0112799537" y="5735455.805296473" >
		</node>
		<node id="1423511177" x="454071.06193534867" y="5735535.653344865" >
		</node>
		<node id="1423511180" x="453967.0702102785" y="5735539.083767283" >
		</node>
		<node id="1423511185" x="453802.2986707868" y="5735548.056812015" >
		</node>
		<node id="1423511194" x="453807.1865412185" y="5735618.206712885" >
		</node>
		<node id="1423511199" x="453970.92810991424" y="5735656.825701839" >
		</node>
		<node id="1423511208" x="453810.5697567996" y="5735663.522528898" >
		</node>
		<node id="1423511221" x="454112.0496932786" y="5735696.512623764" >
		</node>
		<node id="1423511225" x="453972.82739549095" y="5735700.008517709" >
		</node>
		<node id="1423511239" x="455022.5014970663" y="5735738.3894157875" >
		</node>
		<node id="1423511261" x="453645.4028083978" y="5735835.128145814" >
		</node>
		<node id="1423511297" x="454026.3610810239" y="5735855.480319802" >
		</node>
		<node id="1423511312" x="453822.76675417984" y="5735869.2122257585" >
		</node>
		<node id="1423511320" x="453686.7208693129" y="5735872.431141681" >
		</node>
		<node id="1424284097" x="454506.2563066113" y="5735812.868481514" >
		</node>
		<node id="1424284099" x="454507.75112151867" y="5735824.033168494" >
		</node>
		<node id="1424944060" x="453717.99502755306" y="5734545.639628696" >
		</node>
		<node id="1424946566" x="454267.274394777" y="5734533.846412549" >
		</node>
		<node id="1424953581" x="454058.445105365" y="5734445.743819441" >
		</node>
		<node id="1424953585" x="454142.25374259445" y="5734467.792156331" >
		</node>
		<node id="1424958126" x="454296.3524861501" y="5734730.663231681" >
		</node>
		<node id="1424958147" x="454206.0401205473" y="5734753.350948264" >
		</node>
		<node id="1425440965" x="453848.39171013166" y="5734868.6660541035" >
		</node>
		<node id="1425440966" x="454026.60300446366" y="5734874.854532505" >
		</node>
		<node id="1425440967" x="454181.9863051522" y="5734910.998820926" >
		</node>
		<node id="1425440972" x="453905.8965927508" y="5734992.222801374" >
		</node>
		<node id="1425440973" x="453799.84175372496" y="5735016.474658119" >
		</node>
		<node id="1425440983" x="453690.2273875635" y="5735041.55121603" >
		</node>
		<node id="1425441016" x="454140.0374555488" y="5735134.422012871" >
		</node>
		<node id="1425441027" x="453829.3891795424" y="5735155.124783591" >
		</node>
		<node id="1425441035" x="453720.4742212211" y="5735177.891936979" >
		</node>
		<node id="1425441041" x="453633.0804889413" y="5735195.635955721" >
		</node>
		<node id="1425441056" x="454085.2614755049" y="5735227.505807806" >
		</node>
		<node id="1425441062" x="454011.3948008971" y="5735243.084442175" >
		</node>
		<node id="1426495901" x="453349.0013286535" y="5734696.63115422" >
		</node>
		<node id="1426495905" x="453538.03740946203" y="5734701.567633438" >
		</node>
		<node id="1426496072" x="452851.62079873437" y="5734812.224122174" >
		</node>
		<node id="1426496078" x="452965.3411031932" y="5734813.529431032" >
		</node>
		<node id="1426496080" x="453081.282977498" y="5734816.240296242" >
		</node>
		<node id="1426496116" x="453824.1227730492" y="5734827.02317395" >
		</node>
		<node id="1426496172" x="453550.57706830034" y="5734858.514156192" >
		</node>
		<node id="1426496251" x="453471.5287730098" y="5734879.175878823" >
		</node>
		<node id="1426496302" x="453773.07052806136" y="5734899.221334939" >
		</node>
		<node id="1426496321" x="453454.19634716265" y="5734914.772732823" >
		</node>
		<node id="1426496333" x="453343.0743192174" y="5734920.973464651" >
		</node>
		<node id="1426496351" x="453581.329041779" y="5734927.869101713" >
		</node>
		<node id="1426496374" x="452849.41399502946" y="5734945.048936861" >
		</node>
		<node id="1426496410" x="453484.2877608061" y="5734949.130374288" >
		</node>
		<node id="1426496427" x="453638.15941207646" y="5734953.561341198" >
		</node>
		<node id="1426496458" x="453366.91312665574" y="5734972.417088394" >
		</node>
		<node id="1426496484" x="453603.7572221876" y="5734982.285430995" >
		</node>
		<node id="1426496485" x="453588.2214067404" y="5734984.497452788" >
		</node>
		<node id="1426496489" x="453373.70396870596" y="5734987.280724497" >
		</node>
		<node id="1426496567" x="453331.3999694654" y="5735020.339862236" >
		</node>
		<node id="1426496635" x="453224.6973168276" y="5735062.928840056" >
		</node>
		<node id="1426496644" x="453603.7152418678" y="5735060.84476105" >
		</node>
		<node id="1426496729" x="453399.0832312864" y="5735106.035388252" >
		</node>
		<node id="1426496892" x="453427.88274103514" y="5735240.274580577" >
		</node>
		<node id="1427338234" x="453523.7589297024" y="5734739.883319282" >
		</node>
		<node id="1428361746" x="452440.16539898806" y="5733153.117799862" >
		</node>
		<node id="1428361747" x="452214.08491966804" y="5733160.696618944" >
		</node>
		<node id="1428361753" x="452173.14169230097" y="5733177.246398365" >
		</node>
		<node id="1428361795" x="452140.16915062215" y="5733263.871135797" >
		</node>
		<node id="1428361817" x="453175.5878024642" y="5733342.574213429" >
		</node>
		<node id="1428362008" x="453640.5560982217" y="5733538.3790267585" >
		</node>
		<node id="1428362069" x="453637.4598135805" y="5733680.47620676" >
		</node>
		<node id="1431477609" x="453938.95433082356" y="5734654.961387028" >
		</node>
		<node id="1431477740" x="453940.1364551933" y="5734712.4988304665" >
		</node>
		<node id="1431477746" x="453865.65957644983" y="5734715.750117475" >
		</node>
		<node id="1431477797" x="454035.0987649226" y="5734730.450290072" >
		</node>
		<node id="1431477951" x="454011.99958397995" y="5734778.977760047" >
		</node>
		<node id="1431478034" x="454393.8520545933" y="5734802.609612849" >
		</node>
		<node id="1431478052" x="454443.299898458" y="5734808.301541043" >
		</node>
		<node id="1431478073" x="453836.30248578475" y="5734826.055027382" >
		</node>
		<node id="1431478101" x="454201.7288575892" y="5734840.101796451" >
		</node>
		<node id="1431478129" x="454304.18314694957" y="5734860.3481165925" >
		</node>
		<node id="1431698969" x="453914.61901746306" y="5734600.060566045" >
		</node>
		<node id="1431699026" x="453994.0414725055" y="5734652.911631992" >
		</node>
		<node id="1431699028" x="453921.38416765095" y="5734656.73495008" >
		</node>
		<node id="1432306168" x="454401.64467662195" y="5734359.148928637" >
		</node>
		<node id="1432306289" x="454321.4670425005" y="5734424.6869167285" >
		</node>
		<node id="1432306329" x="454607.2271818046" y="5734438.074377559" >
		</node>
		<node id="1432307026" x="454336.6639468357" y="5734602.532426015" >
		</node>
		<node id="1432307196" x="454471.69317232096" y="5734674.662815364" >
		</node>
		<node id="1432307305" x="454525.0309394197" y="5734806.750613684" >
		</node>
		<node id="1432307310" x="454695.7444428411" y="5734805.678518466" >
		</node>
		<node id="1433138817" x="454263.2224371385" y="5734504.174830669" >
		</node>
		<node id="1433138818" x="453925.7800714129" y="5734508.085864521" >
		</node>
		<node id="1433138822" x="454250.50814829743" y="5734514.767814495" >
		</node>
		<node id="1433138823" x="453917.09843848005" y="5734521.056397615" >
		</node>
		<node id="1433138835" x="454136.35412729275" y="5734541.488474422" >
		</node>
		<node id="1433138848" x="454213.95315056376" y="5734570.0790139325" >
		</node>
		<node id="1433138864" x="454293.28480620065" y="5734600.312270313" >
		</node>
		<node id="1433138873" x="454324.93108525797" y="5734609.456996938" >
		</node>
		<node id="1433138898" x="454207.77256056183" y="5734649.40582559" >
		</node>
		<node id="1433138903" x="454311.84337762446" y="5734661.785111465" >
		</node>
		<node id="1433138904" x="453861.44988003693" y="5734665.347758764" >
		</node>
		<node id="1433138905" x="454285.45950768085" y="5734662.82545034" >
		</node>
		<node id="1433138910" x="454260.7899135631" y="5734667.187124714" >
		</node>
		<node id="1433138926" x="454326.53951090376" y="5734719.03311562" >
		</node>
		<node id="1433141053" x="454222.2394781087" y="5734546.201350699" >
		</node>
		<node id="1433937803" x="453756.355038394" y="5733656.982143191" >
		</node>
		<node id="1433937806" x="453729.1680365015" y="5733675.617485111" >
		</node>
		<node id="1433937808" x="453693.0010750949" y="5733692.122151418" >
		</node>
		<node id="1433937825" x="453647.3096138672" y="5733837.82564495" >
		</node>
		<node id="1433937828" x="453720.2856552354" y="5733841.87040542" >
		</node>
		<node id="1433937856" x="453716.2420057503" y="5733926.161107808" >
		</node>
		<node id="1433937864" x="453520.9853662893" y="5734219.627251927" >
		</node>
		<node id="1433937906" x="453509.02893635194" y="5734425.082962545" >
		</node>
		<node id="1433938206" x="453494.390419337" y="5734700.20215719" >
		</node>
		<node id="1435287870" x="453835.07822817663" y="5733961.585641297" >
		</node>
		<node id="1435287878" x="453824.19914977916" y="5733999.980426796" >
		</node>
		<node id="1435287914" x="453815.62116358476" y="5734103.343364556" >
		</node>
		<node id="1435287915" x="453890.54237990384" y="5734111.443556618" >
		</node>
		<node id="1435287916" x="453960.54361200763" y="5734120.513017489" >
		</node>
		<node id="1435287920" x="453839.1441295882" y="5734184.467084852" >
		</node>
		<node id="1435287921" x="453836.69871890225" y="5734227.1779701635" >
		</node>
		<node id="1435287924" x="453835.58877930377" y="5734240.880044496" >
		</node>
		<node id="1435287930" x="453851.7651819353" y="5734255.580398693" >
		</node>
		<node id="1435287933" x="454185.9506399857" y="5734276.475376432" >
		</node>
		<node id="1435315166" x="454041.01224444236" y="5733605.770641633" >
		</node>
		<node id="1435315170" x="454159.41077766736" y="5733608.484309997" >
		</node>
		<node id="1435315173" x="453968.3802163478" y="5733611.750599044" >
		</node>
		<node id="1435315195" x="454335.87111412757" y="5733727.349551017" >
		</node>
		<node id="1435315210" x="454096.11182479886" y="5733754.532898108" >
		</node>
		<node id="1435315255" x="454081.0924661086" y="5733791.107355065" >
		</node>
		<node id="1435315278" x="454069.80704576767" y="5733807.905247772" >
		</node>
		<node id="1435315293" x="453948.0041369579" y="5733816.647765437" >
		</node>
		<node id="1435315361" x="454200.24877962033" y="5733907.22066081" >
		</node>
		<node id="1435315365" x="454339.10552820546" y="5733915.035631589" >
		</node>
		<node id="1435315372" x="454470.05584160547" y="5733918.054227753" >
		</node>
		<node id="1435315392" x="453980.1527201772" y="5733933.77483949" >
		</node>
		<node id="1435315414" x="454087.4070959025" y="5733972.614562814" >
		</node>
		<node id="1435315441" x="454299.2123417987" y="5734023.742407263" >
		</node>
		<node id="1435315464" x="454329.187972669" y="5734033.236045401" >
		</node>
		<node id="1435315505" x="454468.86244873225" y="5734073.880915202" >
		</node>
		<node id="1435315536" x="454221.72947871493" y="5734155.325479881" >
		</node>
		<node id="1435315632" x="453994.0885940178" y="5734282.662747926" >
		</node>
		<node id="1435315657" x="453997.01530517964" y="5734318.172640708" >
		</node>
		<node id="1435315661" x="454148.6597706709" y="5734317.801513744" >
		</node>
		<node id="1435315703" x="454256.75572589395" y="5734344.713668756" >
		</node>
		<node id="1435315763" x="454290.78132618417" y="5734384.623855865" >
		</node>
		<node id="1435315768" x="454198.8647117424" y="5734402.365495764" >
		</node>
		<node id="1435315782" x="454170.943952271" y="5734420.493546556" >
		</node>
		<node id="1435315787" x="454225.35226868175" y="5734445.224572391" >
		</node>
		<node id="1435315789" x="454250.79979920504" y="5734484.578502398" >
		</node>
		<node id="1436799596" x="453716.87117618404" y="5735624.353088235" >
		</node>
		<node id="1439122640" x="454796.3670646976" y="5733918.62908023" >
		</node>
		<node id="1439122660" x="454913.89069442335" y="5734108.249190051" >
		</node>
		<node id="1439122674" x="455065.6281327841" y="5734145.49912126" >
		</node>
		<node id="1439122676" x="455272.18939924065" y="5734148.387041892" >
		</node>
		<node id="1439122694" x="455384.2194880083" y="5734193.507116037" >
		</node>
		<node id="1439122706" x="454853.51618395606" y="5734268.810252825" >
		</node>